Test_Network/network_17/Lines.txt
New Line.LINE11 Bus1=11 Bus2=12 phases=3 Linecode=3c_300_SAC_XC Length=0.44359 Units=m
New Line.LINE12 Bus1=12 Bus2=13 phases=3 Linecode=3c_300_SAC_XC Length=0.038329 Units=m
New Line.LINE13 Bus1=13 Bus2=14 phases=3 Linecode=3c_300_SAC_XC Length=0.039115 Units=m
New Line.LINE14 Bus1=14 Bus2=15 phases=3 Linecode=3c_300_SAC_XC Length=0.038118 Units=m
New Line.LINE15 Bus1=15 Bus2=16 phases=3 Linecode=3c_300_SAC_XC Length=0.038602 Units=m
New Line.LINE16 Bus1=16 Bus2=17 phases=3 Linecode=3c_300_SAC_XC Length=0.038483 Units=m
New Line.LINE17 Bus1=17 Bus2=18 phases=3 Linecode=3c_300_SAC_XC Length=0.039408 Units=m
New Line.LINE18 Bus1=18 Bus2=19 phases=3 Linecode=3c_300_SAC_XC Length=0.03821 Units=m
New Line.LINE19 Bus1=19 Bus2=110 phases=3 Linecode=3c_300_SAC_XC Length=0.038834 Units=m
New Line.LINE110 Bus1=110 Bus2=111 phases=3 Linecode=3c_300_SAC_XC Length=0.67833 Units=m
New Line.LINE111 Bus1=111 Bus2=112 phases=3 Linecode=3c_300_SAC_XC Length=0.89525 Units=m
New Line.LINE112 Bus1=112 Bus2=113 phases=3 Linecode=3c_300_SAC_XC Length=0.25852 Units=m
New Line.LINE113 Bus1=113 Bus2=114 phases=3 Linecode=3c_300_SAC_XC Length=0.25726 Units=m
New Line.LINE114 Bus1=114 Bus2=115 phases=3 Linecode=3c_300_SAC_XC Length=0.25812 Units=m
New Line.LINE115 Bus1=115 Bus2=116 phases=3 Linecode=3c_300_SAC_XC Length=0.25767 Units=m
New Line.LINE116 Bus1=116 Bus2=117 phases=3 Linecode=3c_300_SAC_XC Length=0.2583 Units=m
New Line.LINE117 Bus1=117 Bus2=118 phases=3 Linecode=3c_300_SAC_XC Length=3.6805 Units=m
New Line.LINE118 Bus1=118 Bus2=119 phases=3 Linecode=3c_300_SAC_XC Length=0.27293 Units=m
New Line.LINE119 Bus1=119 Bus2=120 phases=3 Linecode=3c_300_SAC_XC Length=0.27242 Units=m
New Line.LINE120 Bus1=120 Bus2=121 phases=3 Linecode=3c_300_SAC_XC Length=0.65867 Units=m
New Line.LINE121 Bus1=121 Bus2=122 phases=3 Linecode=3c_300_SAC_XC Length=0.18811 Units=m
New Line.LINE122 Bus1=122 Bus2=123 phases=3 Linecode=3c_300_SAC_XC Length=0.18645 Units=m
New Line.LINE123 Bus1=123 Bus2=124 phases=3 Linecode=3c_300_SAC_XC Length=0.23089 Units=m
New Line.LINE124 Bus1=124 Bus2=125 phases=3 Linecode=3c_300_SAC_XC Length=0.26314 Units=m
New Line.LINE125 Bus1=125 Bus2=126 phases=3 Linecode=3c_300_SAC_XC Length=29.9951 Units=m
New Line.LINE126 Bus1=126 Bus2=127 phases=3 Linecode=3c_300_SAC_XC Length=0.95847 Units=m
New Line.LINE127 Bus1=127 Bus2=128 phases=3 Linecode=3c_300_SAC_XC Length=0.3904 Units=m
New Line.LINE128 Bus1=128 Bus2=129 phases=3 Linecode=3c_300_SAC_XC Length=0.39102 Units=m
New Line.LINE129 Bus1=129 Bus2=130 phases=3 Linecode=3c_300_SAC_XC Length=0.18681 Units=m
New Line.LINE130 Bus1=130 Bus2=131 phases=3 Linecode=3c_300_SAC_XC Length=0.34318 Units=m
New Line.LINE131 Bus1=131 Bus2=132 phases=3 Linecode=3c_300_SAC_XC Length=0.56873 Units=m
New Line.LINE132 Bus1=132 Bus2=133 phases=3 Linecode=4c_.25 Length=1.5571 Units=m
New Line.LINE133 Bus1=132 Bus2=134 phases=3 Linecode=4c_.25 Length=1.5571 Units=m
New Line.LINE134 Bus1=133 Bus2=135 phases=3 Linecode=4c_.25 Length=7.5169 Units=m
New Line.LINE135 Bus1=133 Bus2=136 phases=3 Linecode=4c_.25 Length=7.5169 Units=m
New Line.LINE136 Bus1=135 Bus2=137 phases=3 Linecode=4c_.25 Length=1.1775 Units=m
New Line.LINE137 Bus1=135 Bus2=138 phases=3 Linecode=4c_.25 Length=1.1775 Units=m
New Line.LINE138 Bus1=137 Bus2=139 phases=3 Linecode=4c_.25 Length=0.406 Units=m
New Line.LINE139 Bus1=137 Bus2=140 phases=3 Linecode=4c_.25 Length=0.406 Units=m
New Line.LINE140 Bus1=139 Bus2=141 phases=3 Linecode=4c_.25 Length=0.38134 Units=m
New Line.LINE141 Bus1=139 Bus2=142 phases=3 Linecode=4c_.25 Length=0.38134 Units=m
New Line.LINE142 Bus1=141 Bus2=143 phases=3 Linecode=4c_.25 Length=0.41665 Units=m
New Line.LINE143 Bus1=141 Bus2=144 phases=3 Linecode=4c_.25 Length=0.41665 Units=m
New Line.LINE144 Bus1=143 Bus2=145 phases=3 Linecode=4c_.25 Length=0.2658 Units=m
New Line.LINE145 Bus1=143 Bus2=146 phases=3 Linecode=4c_.25 Length=0.2658 Units=m
New Line.LINE146 Bus1=145 Bus2=147 phases=3 Linecode=4c_.25 Length=0.2377 Units=m
New Line.LINE147 Bus1=145 Bus2=148 phases=3 Linecode=4c_.25 Length=0.2377 Units=m
New Line.LINE148 Bus1=147 Bus2=149 phases=3 Linecode=4c_.25 Length=0.23755 Units=m
New Line.LINE149 Bus1=147 Bus2=150 phases=3 Linecode=4c_.25 Length=0.23755 Units=m
New Line.LINE150 Bus1=149 Bus2=151 phases=3 Linecode=4c_.25 Length=1.0978 Units=m
New Line.LINE151 Bus1=149 Bus2=152 phases=3 Linecode=4c_.25 Length=1.0978 Units=m
New Line.LINE152 Bus1=151 Bus2=153 phases=3 Linecode=4c_.25 Length=23.3695 Units=m
New Line.LINE153 Bus1=151 Bus2=154 phases=3 Linecode=4c_.25 Length=23.3695 Units=m
New Line.LINE154 Bus1=153 Bus2=155 phases=3 Linecode=4c_.25 Length=1.9527 Units=m
New Line.LINE155 Bus1=153 Bus2=156 phases=3 Linecode=2c_.04 Length=6.7095 Units=m
New Line.LINE156 Bus1=153 Bus2=157 phases=3 Linecode=4c_.25 Length=1.9527 Units=m
New Line.LINE157 Bus1=155 Bus2=158 phases=3 Linecode=4c_.25 Length=5.6386 Units=m
New Line.LINE158 Bus1=155 Bus2=159 phases=3 Linecode=4c_.25 Length=5.2414 Units=m
New Line.LINE159 Bus1=156 Bus2=160 phases=3 Linecode=2c_.04 Length=2.8976 Units=m
New Line.LINE160 Bus1=156 Bus2=161 phases=3 Linecode=2c_.04 Length=6.048 Units=m
New Line.LINE161 Bus1=158 Bus2=162 phases=3 Linecode=4c_.25 Length=4.8727 Units=m
New Line.LINE162 Bus1=158 Bus2=163 phases=3 Linecode=4c_.25 Length=4.8727 Units=m
New Line.LINE163 Bus1=158 Bus2=164 phases=3 Linecode=4c_.25 Length=0.3972 Units=m
New Line.LINE164 Bus1=159 Bus2=165 phases=3 Linecode=4_XC Length=0.15116 Units=m
New Line.LINE165 Bus1=160 Bus2=166 phases=3 Linecode=2c_.04 Length=0.72226 Units=m
New Line.LINE166 Bus1=161 Bus2=167 phases=3 Linecode=2c_.04 Length=0.17875 Units=m
New Line.LINE167 Bus1=162 Bus2=168 phases=3 Linecode=4c_.25 Length=24.3926 Units=m
New Line.LINE168 Bus1=162 Bus2=169 phases=3 Linecode=4c_.25 Length=11.3398 Units=m
New Line.LINE169 Bus1=165 Bus2=170 phases=3 Linecode=4_XC Length=0.04653 Units=m
New Line.LINE170 Bus1=166 Bus2=171 phases=3 Linecode=2c_.04 Length=0.27216 Units=m
New Line.LINE171 Bus1=167 Bus2=172 phases=3 Linecode=2c_.04 Length=0.14625 Units=m
New Line.LINE172 Bus1=168 Bus2=173 phases=3 Linecode=4c_.25 Length=7.4333 Units=m
New Line.LINE173 Bus1=168 Bus2=174 phases=3 Linecode=4c_.25 Length=7.4333 Units=m
New Line.LINE174 Bus1=168 Bus2=175 phases=3 Linecode=4c_.25 Length=13.0528 Units=m
New Line.LINE175 Bus1=169 Bus2=176 phases=3 Linecode=4c_.25 Length=0.081295 Units=m
New Line.LINE176 Bus1=170 Bus2=177 phases=3 Linecode=4_XC Length=0.047127 Units=m
New Line.LINE177 Bus1=171 Bus2=178 phases=3 Linecode=2c_.04 Length=0.21658 Units=m
New Line.LINE178 Bus1=172 Bus2=179 phases=3 Linecode=2c_.04 Length=0.1004 Units=m
New Line.LINE179 Bus1=173 Bus2=180 phases=3 Linecode=4c_.25 Length=8.054 Units=m
New Line.LINE180 Bus1=173 Bus2=181 phases=3 Linecode=4c_.25 Length=8.054 Units=m
New Line.LINE181 Bus1=176 Bus2=182 phases=3 Linecode=4c_.25 Length=0.073246 Units=m
New Line.LINE182 Bus1=177 Bus2=183 phases=3 Linecode=4_XC Length=0.047012 Units=m
New Line.LINE183 Bus1=178 Bus2=184 phases=3 Linecode=2c_.04 Length=0.23577 Units=m
New Line.LINE184 Bus1=179 Bus2=185 phases=3 Linecode=2c_.04 Length=0.15728 Units=m
New Line.LINE185 Bus1=180 Bus2=186 phases=3 Linecode=4c_.25 Length=3.1751 Units=m
New Line.LINE186 Bus1=180 Bus2=187 phases=3 Linecode=4c_.25 Length=3.1751 Units=m
New Line.LINE187 Bus1=182 Bus2=188 phases=3 Linecode=4c_.25 Length=0.073111 Units=m
New Line.LINE188 Bus1=183 Bus2=189 phases=3 Linecode=4_XC Length=0.04701 Units=m
New Line.LINE189 Bus1=184 Bus2=190 phases=3 Linecode=2c_.04 Length=0.21333 Units=m
New Line.LINE190 Bus1=185 Bus2=191 phases=3 Linecode=2c_.04 Length=0.22716 Units=m
New Line.LINE191 Bus1=186 Bus2=192 phases=3 Linecode=4c_.25 Length=3.7711 Units=m
New Line.LINE192 Bus1=186 Bus2=193 phases=3 Linecode=4c_.25 Length=3.7711 Units=m
New Line.LINE193 Bus1=188 Bus2=194 phases=3 Linecode=4c_.25 Length=0.073429 Units=m
New Line.LINE194 Bus1=189 Bus2=195 phases=3 Linecode=4_XC Length=0.047424 Units=m
New Line.LINE195 Bus1=190 Bus2=196 phases=3 Linecode=2c_.04 Length=0.43307 Units=m
New Line.LINE196 Bus1=191 Bus2=197 phases=3 Linecode=2c_.04 Length=0.47756 Units=m
New Line.LINE197 Bus1=192 Bus2=198 phases=3 Linecode=4c_.25 Length=3.1145 Units=m
New Line.LINE198 Bus1=192 Bus2=199 phases=3 Linecode=4c_.25 Length=0.90537 Units=m
New Line.LINE199 Bus1=194 Bus2=1100 phases=3 Linecode=4c_.25 Length=0.073056 Units=m
New Line.LINE1100 Bus1=195 Bus2=1101 phases=3 Linecode=4_XC Length=0.046648 Units=m
New Line.LINE1101 Bus1=196 Bus2=1102 phases=3 Linecode=2c_.04 Length=3.3635 Units=m
New Line.LINE1102 Bus1=196 Bus2=1103 phases=3 Linecode=2c_.04 Length=0.56626 Units=m
New Line.LINE1103 Bus1=197 Bus2=1104 phases=3 Linecode=2c_.04 Length=4.0329 Units=m
New Line.LINE1104 Bus1=197 Bus2=1105 phases=3 Linecode=2c_.04 Length=0.71111 Units=m
New Line.LINE1105 Bus1=197 Bus2=1106 phases=3 Linecode=2c_.04 Length=0.71111 Units=m
New Line.LINE1106 Bus1=198 Bus2=1107 phases=3 Linecode=4c_.25 Length=16.2428 Units=m
New Line.LINE1107 Bus1=199 Bus2=1108 phases=3 Linecode=4c_.25 Length=0.76234 Units=m
New Line.LINE1108 Bus1=1100 Bus2=1109 phases=3 Linecode=4c_.25 Length=0.07269 Units=m
New Line.LINE1109 Bus1=1101 Bus2=1110 phases=3 Linecode=4_XC Length=1.495 Units=m
New Line.LINE1110 Bus1=1103 Bus2=1111 phases=3 Linecode=2c_.04 Length=0.24616 Units=m
New Line.LINE1111 Bus1=1105 Bus2=1112 phases=3 Linecode=2c_.04 Length=0.22682 Units=m
New Line.LINE1112 Bus1=1105 Bus2=1113 phases=3 Linecode=2c_.04 Length=0.22682 Units=m
New Line.LINE1113 Bus1=1107 Bus2=1114 phases=3 Linecode=4_XC Length=0.45843 Units=m
New Line.LINE1114 Bus1=1107 Bus2=1115 phases=3 Linecode=4c_.25 Length=8.3151 Units=m
New Line.LINE1115 Bus1=1108 Bus2=1116 phases=3 Linecode=4c_.25 Length=0.6952 Units=m
New Line.LINE1116 Bus1=1109 Bus2=1117 phases=3 Linecode=4c_.25 Length=0.073029 Units=m
New Line.LINE1117 Bus1=1111 Bus2=1118 phases=3 Linecode=2c_.04 Length=0.18256 Units=m
New Line.LINE1118 Bus1=1112 Bus2=1119 phases=3 Linecode=2c_.04 Length=0.116 Units=m
New Line.LINE1119 Bus1=1112 Bus2=1120 phases=3 Linecode=2c_.04 Length=0.116 Units=m
New Line.LINE1120 Bus1=1114 Bus2=1121 phases=3 Linecode=4_XC Length=0.050606 Units=m
New Line.LINE1121 Bus1=1115 Bus2=1122 phases=3 Linecode=2c_.007 Length=1.4077 Units=m
New Line.LINE1122 Bus1=1115 Bus2=1123 phases=3 Linecode=4c_.25 Length=4.1369 Units=m
New Line.LINE1123 Bus1=1116 Bus2=1124 phases=3 Linecode=4c_.25 Length=0.85981 Units=m
New Line.LINE1124 Bus1=1117 Bus2=1125 phases=3 Linecode=4c_.25 Length=0.07278 Units=m
New Line.LINE1125 Bus1=1118 Bus2=1126 phases=3 Linecode=2c_.04 Length=0.14066 Units=m
New Line.LINE1126 Bus1=1119 Bus2=1127 phases=3 Linecode=2c_.04 Length=0.13396 Units=m
New Line.LINE1127 Bus1=1119 Bus2=1128 phases=3 Linecode=2c_.04 Length=0.13396 Units=m
New Line.LINE1128 Bus1=1121 Bus2=1129 phases=3 Linecode=4_XC Length=0.050992 Units=m
New Line.LINE1129 Bus1=1122 Bus2=1130 phases=3 Linecode=2c_.007 Length=0.1085 Units=m
New Line.LINE1130 Bus1=1123 Bus2=1131 phases=3 Linecode=2c_.04 Length=7.2512 Units=m
New Line.LINE1131 Bus1=1123 Bus2=1132 phases=3 Linecode=4c_.25 Length=15.1099 Units=m
New Line.LINE1132 Bus1=1124 Bus2=1133 phases=3 Linecode=4c_.25 Length=0.78933 Units=m
New Line.LINE1133 Bus1=1125 Bus2=1134 phases=3 Linecode=4c_.25 Length=0.073537 Units=m
New Line.LINE1134 Bus1=1126 Bus2=1135 phases=3 Linecode=2c_.04 Length=0.28307 Units=m
New Line.LINE1135 Bus1=1127 Bus2=1136 phases=3 Linecode=2c_.04 Length=0.053601 Units=m
New Line.LINE1136 Bus1=1127 Bus2=1137 phases=3 Linecode=2c_.04 Length=0.053601 Units=m
New Line.LINE1137 Bus1=1129 Bus2=1138 phases=3 Linecode=4_XC Length=0.050773 Units=m
New Line.LINE1138 Bus1=1130 Bus2=1139 phases=3 Linecode=2c_.007 Length=0.10802 Units=m
New Line.LINE1139 Bus1=1131 Bus2=1140 phases=3 Linecode=2c_.04 Length=0.79305 Units=m
New Line.LINE1140 Bus1=1131 Bus2=1141 phases=3 Linecode=2c_.04 Length=4.6693 Units=m
New Line.LINE1141 Bus1=1132 Bus2=1142 phases=3 Linecode=4c_.25 Length=4.6041 Units=m
New Line.LINE1142 Bus1=1133 Bus2=1143 phases=3 Linecode=4c_.25 Length=1.3106 Units=m
New Line.LINE1143 Bus1=1134 Bus2=1144 phases=3 Linecode=4c_.25 Length=0.63124 Units=m
New Line.LINE1144 Bus1=1135 Bus2=1145 phases=3 Linecode=2c_.04 Length=4.6961 Units=m
New Line.LINE1145 Bus1=1136 Bus2=1146 phases=3 Linecode=2c_.04 Length=0.12468 Units=m
New Line.LINE1146 Bus1=1136 Bus2=1147 phases=3 Linecode=2c_.04 Length=0.12468 Units=m
New Line.LINE1147 Bus1=1138 Bus2=1148 phases=3 Linecode=4_XC Length=0.05108 Units=m
New Line.LINE1148 Bus1=1139 Bus2=1149 phases=3 Linecode=2c_.007 Length=0.10826 Units=m
New Line.LINE1149 Bus1=1140 Bus2=1150 phases=3 Linecode=2c_.04 Length=0.36054 Units=m
New Line.LINE1150 Bus1=1142 Bus2=1151 phases=3 Linecode=2c_.04 Length=6.0658 Units=m
New Line.LINE1151 Bus1=1142 Bus2=1152 phases=3 Linecode=4c_.25 Length=2.1491 Units=m
New Line.LINE1152 Bus1=1143 Bus2=1153 phases=3 Linecode=4c_.25 Length=1.8988 Units=m
New Line.LINE1153 Bus1=1145 Bus2=1154 phases=3 Linecode=2c_.04 Length=0.57339 Units=m
New Line.LINE1154 Bus1=1146 Bus2=1155 phases=3 Linecode=2c_.04 Length=1.4705 Units=m
New Line.LINE1155 Bus1=1146 Bus2=1156 phases=3 Linecode=2c_.04 Length=1.4705 Units=m
New Line.LINE1156 Bus1=1148 Bus2=1157 phases=3 Linecode=4_XC Length=0.050009 Units=m
New Line.LINE1157 Bus1=1149 Bus2=1158 phases=3 Linecode=2c_.007 Length=0.10863 Units=m
New Line.LINE1158 Bus1=1150 Bus2=1159 phases=3 Linecode=2c_.04 Length=0.1964 Units=m
New Line.LINE1159 Bus1=1151 Bus2=1160 phases=3 Linecode=2c_.04 Length=1.7592 Units=m
New Line.LINE1160 Bus1=1151 Bus2=1161 phases=3 Linecode=2c_.04 Length=3.6253 Units=m
New Line.LINE1161 Bus1=1152 Bus2=1162 phases=3 Linecode=4c_.25 Length=7.9157 Units=m
New Line.LINE1162 Bus1=1153 Bus2=1163 phases=3 Linecode=4c_.25 Length=3.282 Units=m
New Line.LINE1163 Bus1=1154 Bus2=1164 phases=3 Linecode=2c_.04 Length=0.22665 Units=m
New Line.LINE1164 Bus1=1155 Bus2=1165 phases=3 Linecode=2c_.04 Length=4.0441 Units=m
New Line.LINE1165 Bus1=1157 Bus2=1166 phases=3 Linecode=4_XC Length=0.051039 Units=m
New Line.LINE1166 Bus1=1158 Bus2=1167 phases=3 Linecode=2c_.007 Length=0.10876 Units=m
New Line.LINE1167 Bus1=1159 Bus2=1168 phases=3 Linecode=2c_.04 Length=0.29925 Units=m
New Line.LINE1168 Bus1=1160 Bus2=1169 phases=3 Linecode=2c_.04 Length=0.20381 Units=m
New Line.LINE1169 Bus1=1161 Bus2=1170 phases=3 Linecode=2c_.04 Length=0.50921 Units=m
New Line.LINE1170 Bus1=1162 Bus2=1171 phases=3 Linecode=4c_.25 Length=6.5848 Units=m
New Line.LINE1171 Bus1=1163 Bus2=1172 phases=3 Linecode=4c_.25 Length=3.7647 Units=m
New Line.LINE1172 Bus1=1164 Bus2=1173 phases=3 Linecode=2c_.04 Length=0.1562 Units=m
New Line.LINE1173 Bus1=1165 Bus2=1174 phases=3 Linecode=2c_.04 Length=0.22718 Units=m
New Line.LINE1174 Bus1=1166 Bus2=1175 phases=3 Linecode=4_XC Length=0.051351 Units=m
New Line.LINE1175 Bus1=1167 Bus2=1176 phases=3 Linecode=2c_.007 Length=0.1083 Units=m
New Line.LINE1176 Bus1=1168 Bus2=1177 phases=3 Linecode=2c_.04 Length=0.70078 Units=m
New Line.LINE1177 Bus1=1169 Bus2=1178 phases=3 Linecode=2c_.04 Length=0.1006 Units=m
New Line.LINE1178 Bus1=1170 Bus2=1179 phases=3 Linecode=2c_.04 Length=0.212 Units=m
New Line.LINE1179 Bus1=1171 Bus2=1180 phases=3 Linecode=4c_.25 Length=0.92352 Units=m
New Line.LINE1180 Bus1=1172 Bus2=1181 phases=3 Linecode=4c_.25 Length=0.75749 Units=m
New Line.LINE1181 Bus1=1173 Bus2=1182 phases=3 Linecode=2c_.04 Length=0.16808 Units=m
New Line.LINE1182 Bus1=1174 Bus2=1183 phases=3 Linecode=2c_.04 Length=0.17429 Units=m
New Line.LINE1183 Bus1=1175 Bus2=1184 phases=3 Linecode=4_XC Length=0.2833 Units=m
New Line.LINE1184 Bus1=1176 Bus2=1185 phases=3 Linecode=2c_.007 Length=0.1078 Units=m
New Line.LINE1185 Bus1=1177 Bus2=1186 phases=3 Linecode=2c_.04 Length=2.6552 Units=m
New Line.LINE1186 Bus1=1178 Bus2=1187 phases=3 Linecode=2c_.04 Length=0.14848 Units=m
New Line.LINE1187 Bus1=1179 Bus2=1188 phases=3 Linecode=2c_.04 Length=0.071868 Units=m
New Line.LINE1188 Bus1=1180 Bus2=1189 phases=3 Linecode=4c_.25 Length=6.0162 Units=m
New Line.LINE1189 Bus1=1181 Bus2=1190 phases=3 Linecode=2c_.007 Length=0.5269 Units=m
New Line.LINE1190 Bus1=1181 Bus2=1191 phases=3 Linecode=4c_.25 Length=1.0508 Units=m
New Line.LINE1191 Bus1=1182 Bus2=1192 phases=3 Linecode=2c_.04 Length=0.2448 Units=m
New Line.LINE1192 Bus1=1183 Bus2=1193 phases=3 Linecode=2c_.04 Length=0.12379 Units=m
New Line.LINE1193 Bus1=1185 Bus2=1194 phases=3 Linecode=2c_.007 Length=0.10867 Units=m
New Line.LINE1194 Bus1=1186 Bus2=1195 phases=3 Linecode=2c_.04 Length=2.1263 Units=m
New Line.LINE1195 Bus1=1187 Bus2=1196 phases=3 Linecode=2c_.04 Length=0.15775 Units=m
New Line.LINE1196 Bus1=1188 Bus2=1197 phases=3 Linecode=2c_.04 Length=0.068469 Units=m
New Line.LINE1197 Bus1=1189 Bus2=1198 phases=3 Linecode=4c_.25 Length=8.6005 Units=m
New Line.LINE1198 Bus1=1190 Bus2=1199 phases=3 Linecode=2c_.007 Length=0.27797 Units=m
New Line.LINE1199 Bus1=1191 Bus2=1200 phases=3 Linecode=4c_.25 Length=9.4937 Units=m
New Line.LINE1200 Bus1=1192 Bus2=1201 phases=3 Linecode=2c_.04 Length=0.67246 Units=m
...
